cases/Case_14bus_v2/andes_report/ieee14AC_with_dc_mod_out.txt
ANDES 1.9.3
Copyright (C) 2015-2022 Hantao Cui

ANDES comes with ABSOLUTELY NO WARRANTY
Case file: c:\Users\hoss258\Projects_2324\ecomp_code_publish\pnnl_github_version\SyNAPS\cases\Case_14bus_v2\ieee14AC_with_dc_mod.xlsx
Report time: 12/22/2025 10:34:03 PM

Power flow converged in 4 iterations.
Flat-start: No

Statistics:
Buses                             14
Generators                         5
Committed Gens                     5
Loads                             11
Shunts                             2
Lines                             20
Transformers                       4
Areas                              2

EXTENDED SUMMARY:
                              P (pu)            Q (pu)

Generation                    2.6755            1.4511
Load                          2.5879             1.326

BUS DATA:
                            Bus Name            Vm(pu)          Va(rad.)

1                               BUS1              1.03        1.6704e-16
2                               BUS2              1.03         -0.046514
3                               BUS3              1.01         -0.087037
4                               BUS4           0.99889          -0.10675
5                               BUS5            1.0056         -0.099521
6                               BUS6              1.03          -0.22173
7                               BUS7           0.99394          -0.12604
8                               BUS8              1.03         -0.065782
9                               BUS9           0.97131          -0.17638
10                             BUS10           0.97425           -0.1776
11                             BUS11           0.98354          -0.20771
12                             BUS12           0.99457          -0.25025
13                             BUS13           0.96018          -0.26168
14                             BUS14           0.91037          -0.24361

LINE DATA:
                           Line Name     Fr. Bus (idx)      To Bus (idx)       P From (pu)       Q From (pu)         P To (pu)         Q To (pu)

Line_1                        Line_1                 1                 2           0.75865           -0.2571          -0.74718           0.23611
Line_2                        Line_2                 1                 5           0.46687        -0.0035098          -0.45574        -0.0015327
Line_3                        Line_3                 2                 3           0.22588          0.031522          -0.22348         -0.067016
Line_4                        Line_4                 2                 4           0.37404             0.051          -0.36611         -0.061954
Line_5                        Line_5                 2                 5           0.33026          0.026414           -0.3243         -0.044056
Line_6                        Line_6                 3                 4           0.12348          0.011835          -0.12246         -0.022136
Line_7                        Line_7                 4                 5          -0.20235         -0.094215           0.20302          0.096318
Line_8                        Line_8                 6                11          0.035597           0.22408         -0.030988          -0.21442
Line_9                        Line_9                 6                12           0.14908          0.072641          -0.14589          -0.06601
Line_10                      Line_10                 6                13           0.46635           0.32132          -0.44635          -0.28194
Line_11                      Line_11                 7                 9           0.44157           0.21558          -0.44157           -0.1887
Line_12                      Line_12                 9                10        0.00084737         -0.034115       -0.00080811          0.034219
Line_13                      Line_13                 9                14           0.26708           0.10076           -0.2561         -0.077403
Line_14                      Line_14                10                11           0.11081         -0.092219          -0.10901          0.096424
Line_15                      Line_15                12                13           0.10989           0.05001          -0.10663         -0.047065
Line_16                      Line_16                13                14          0.017983             0.129         -0.014838           -0.1226
Line_17                      Line_17                 4                 7          0.091568           0.02454         -0.091568         -0.022656
Line_18                      Line_18                 4                 9           0.12136          0.053766          -0.12136         -0.043945
Line_19                      Line_19                 6                 5          -0.50102            0.1304           0.50102         -0.066729
Line_20                      Line_20                 8                 7              0.35           0.22141             -0.35          -0.19293

OTHER ALGEBRAIC VARIABLES:
                                    

q PV 2                       0.47204
q PV 3                       0.19482
q PV 4                       0.82344
q PV 5                       0.22141
q Slack 1                   -0.26061
p Slack 1                     1.2255

